Hi, Let's Create Our First Repository. 
This is a new branch named Feature-a!
New line.
This is the exercise solution!
